45
 energy: -8.721773991919 gnorm: 0.000638316505 xtb: 6.7.0 (08769fc)
F           -2.89801445434439       -0.76789445259314        1.71962663320744
F           -1.24522324826352       -1.25187159855786        0.20026857205880
O            2.03674193186265        7.63336520722747        4.43355958164354
O            3.78297923261049        6.99119245938828        3.30383240794693
N           -1.83228778076088        1.02319944629267        0.57519117484105
N           -0.63801335114295       -0.29426746058537        2.29132924234065
N            2.62179155058057        6.82713129484414        3.69920113475518
C           -2.67405652099433        1.29599469508737       -0.42793221772960
C           -2.51656360308939        2.66675046802359       -0.70742577014436
H           -3.04587554410863        3.21023764841326       -1.47091356483698
C           -1.56862343556296        3.20051429796478        0.15380971932889
C           -1.12062109310349        2.14304118463706        0.99663801021545
C           -0.18159003200763        2.11711396662122        2.04642963827789
C            0.02367667921881        0.87061731363015        2.66965904021340
C            0.86360773435598        0.47983150854098        3.75179475730212
C            0.66914473561341       -0.87915037582954        3.95353375251719
H            1.15321155689632       -1.47574281390847        4.70734006010727
C           -0.27432203181890       -1.35366550408383        3.02179240776553
C            0.54555676193547        3.33548057561072        2.47543869966005
C           -0.03415995658819        4.23418344484690        3.37572792965248
H           -1.01904181300604        4.02716923200672        3.75687198167966
C            0.64193582507053        5.36257117138868        3.76950552483958
H            0.20209104461061        6.06005760025746        4.46184362386342
C            1.90703910538383        5.62375149758011        3.27848926782481
C            2.49425664715875        4.74519821533325        2.38786024868619
H            3.48073491756511        4.96720714934500        2.01789649487464
C            1.82604790725796        3.61398758807239        1.98856537273351
H            2.27972219194817        2.92914179466550        1.29338818597161
C           -3.54798776949709        0.31474153158627       -1.09381924437211
H           -4.56287587717209        0.69851919163915       -1.19700411249402
H           -3.58863468371822       -0.60496649013432       -0.50828928259275
H           -3.16763810975301        0.06635292526036       -2.08454150307912
C           -1.12506037842243        4.61434555576612        0.18871377492672
H           -0.03875811973019        4.68292403433975        0.13100824865377
H           -1.44699411999067        5.09974100923255        1.11000991760435
H           -1.53970841125693        5.17589887663226       -0.64851812618935
C            1.77996588640335        1.35090088641312        4.52533144802283
H            2.59475874958289        1.71205852125534        3.89787556734722
H            2.21773078223774        0.81144064702306        5.36533315165584
H            1.25031441355359        2.21599028098152        4.92434983502356
C           -0.82977905964577       -2.71007422602698        2.87274841792706
H           -1.02665630670676       -2.91849493839432        1.82026959247764
H           -1.77377367057563       -2.79785387618752        3.41069709518403
H           -0.14080571131561       -3.46488261678516        3.25153343600714
B           -1.68125557127037       -0.36939486682012        1.18054187430034
